//======================================================================================================================================================================
//																Final Year project group number 20
//======================================================================================================================================================================

//#set dateformat=US

//Some items used by the simulation - these set an "exit deltamode convergence"

#define rotor_convergence=0.01

//Deltamode declarations - global values - these have reasonable defaults, this is just to show how to manipulate them
#set deltamode_timestep=60000000000000	//100 ms
#set deltamode_maximumtime=86400000000000	// 24 hours



clock {
	timezone "PST+8PDT";				//Moved this first in the clock block, otherwise it causes issues
    timestamp '2025-01-01 00:00:00';
    stoptime '2025-01-02 00:00:00';		//Shortened the run-time, just because I didn't want to wait as long
}


module tape;
module climate;
module residential{
	implicit_enduses NONE;
};


module powerflow {

	enable_subsecond_models true;	//Enables deltamode for the powerflow module
	deltamode_timestep 5.0 ms;		//Good timestep value for electromechanical diesels
	solver_method NR;				//NR MUST be used for deltamode, otherwise it won't work
	all_powerflow_delta true;		//Saves having to put "flags DELTAMODE;" on every powerflow object
	default_maximum_voltage_error 1e-12;
		
	line_limits FALSE;
	default_maximum_voltage_error 1e-9;

	NR_iteration_limit 50;
    NR_deltamode_iteration_limit 25;
    enable_frequency_dependence true;


}
module generators {
	enable_subsecond_models true;	//Enables deltamode for generator module
	deltamode_timestep 10.0 ms;	//Desired timestep for the generator module models
}
//======================================================================================================================================================================
//																		    main Swing node
//======================================================================================================================================================================
/// main node(node001)//
object node {      
	name node001;		
	bustype SWING;       
	phases ABCN;     
	nominal_voltage 230.94;     
	frequency_measure_type PLL;	//Have to enable the frequency measurement behavior
	object recorder {      
		flags DELTAMODE;	//Must explicitly set the recorder to do deltamode
		file NODE_001.csv;
		interval 1;			//Changed to 1, otherwise it won't record anything interesting in deltamode
		limit 100000000000;
		property voltage_A,voltage_B,voltage_C,voltage_AB,voltage_BC,voltage_CA,current_A,current_B,current_C,power_A,power_B,power_C,measured_angle_A,measured_frequency_A,measured_angle_B,measured_frequency_B,measured_angle_C,measured_frequency_C,measured_frequency;
	};    
}  

//======================================================================================================================================================================
//																		    main Swing node end
//======================================================================================================================================================================

//======================================================================================================================================================================
//																		    over head line declarations
//======================================================================================================================================================================
// Line definition

object line_spacing {
    name line_spacing_200;
    distance_AB 2.5;
    distance_BC 4.5;
    distance_AC 7.0;
    distance_AN 5.656854;
    distance_BN 4.272002;
    distance_CN 5.0;
}

object overhead_line_conductor {
	name overhead_line_conductor_100;
	geometric_mean_radius 0.0244;
	resistance 0.306;
}

object overhead_line_conductor {
	name overhead_line_conductor_101;
	geometric_mean_radius 0.00814;
	resistance 0.592;
}

object line_configuration {
    name line_config_A;
    conductor_A overhead_line_conductor_100;
    conductor_B overhead_line_conductor_100;
    conductor_C overhead_line_conductor_100;
    conductor_N overhead_line_conductor_101;
    spacing line_spacing_200;
}

//======================================================================================================================================================================
//																		over head line declarations end
//======================================================================================================================================================================
//======================================================================================================================================================================
//																		        Climate File 
//======================================================================================================================================================================

object climate {
	name "Spokane WA";
	tmyfile "./WA-Spokane-727850.tmy3"; 
	interpolate LINEAR;
}
//======================================================================================================================================================================
//																		        Climate File end 
//======================================================================================================================================================================

//======================================================================================================================================================================
//																		      Diesel generator
//======================================================================================================================================================================
// Generator 

object diesel_dg {
    name DIESEL_1;
    parent node001;
    flags DELTAMODE;
    Rated_V 400.00;
    Rated_VA 2 MVA;
    
    Gen_type DYN_SYNCHRONOUS;
    rotor_speed_convergence ${rotor_convergence};
    
    // Set realistic initial power output
    power_out_A 80000.0;
    power_out_B 80000.0;
    power_out_C 80000.0;
    
    // Generator mechanical parameters
    inertia 8.0;           // Inertia constant (seconds)
    damping 2.0;        // Damping coefficient
    omega_ref 376.99;        // Reference frequency (Hz)
    
    // Exciter configuration (SEXS type)
	// Add SEXS Exciter for voltage regulation
    Exciter_type SEXS;
    KA 200;                // Exciter gain
    TA 0.02;               // Exciter time constant
    TB 0.1;                // Exciter time constant
    TC 0.1;                // Exciter time constant
    EMAX 5.0;              // Maximum exciter output
    EMIN -5.0;  
    
	// Improved Governor with controls
    Governor_type DEGOV1;
	DEGOV1_R 0.05;         // Governor droop constant (p.u.)
    DEGOV1_T1 0.5;         // Governor electric control box time constant (s)
    DEGOV1_T2 0.1;         // Governor electric control box time constant (s)
    DEGOV1_T3 0.01;        // Governor electric control box time constant (s)
   // DEGOV1_T4 0.0;         // Governor actuator time constant (s)
   // DEGOV1_T5 0.0;         // Governor actuator time constant (s)
   // DEGOV1_T6 0.0;         // Governor actuator time constant (s)
   // DEGOV1_K 1.0;          // Governor actuator gain
    DEGOV1_TMAX 0.23;      // Governor actuator upper limit (p.u.)
    DEGOV1_TMIN 0.0;       // Governor actuator lower limit (p.u.)
   // DEGOV1_TD 0.0;         // Governor combustion delay (s)

}
object recorder {
    parent DIESEL_1;
    name diesel_power_recorder;
    property pwr_electric.real,pwr_electric.imag,pwr_mech;
    flags DELTAMODE;
    interval 1;  // Record every second
    file "diesel_generator_power.csv";
}

//===================================================================================================================================================================
//																		 Diesel generator end
//===================================================================================================================================================================

//===================================================================================================================================================================
//																		       Solar
//===================================================================================================================================================================

//===================================================================== Solar overhead_line========================================================================//

object overhead_line {
	name ovl_solar_connector1_S1;
	phases "ABCN";
	from solar_m1;
	to node20;
	length 20;
	configuration line_config_A;
}


object overhead_line {
	name ovl_solar_connector1_S2;
	phases "ABCN";
	from solar_m2;
	to node52;
	length 20;
	configuration line_config_A;
}

object overhead_line {
	name ovl_solar_connector1_S3;
	phases "ABCN";
	from solar_m3;
	to node86;
	length 20;
	configuration line_config_A;
}

//==================================================================== Solar overhead_line end==============================================================//

//================================================================ Solar meters================================================================//

object meter {     
      name solar_m1;     
      phases ABCN;     
      nominal_voltage 230.94; 
	  bustype PQ;      
}  
object meter {     
      name solar_m2;     
      phases ABCN;     
      nominal_voltage 230.94;
	  bustype PQ;         
}  
object meter {     
      name solar_m3;     
      phases ABCN;     
      nominal_voltage 230.94;
	  bustype PQ;         
}

//================================================================ Solar meters end ================================================================//

//================================================================ Solar inverters================================================================//

object inverter {
	name solar_inv_01;
	phases ABCN;
	parent solar_m1;
	generator_status ONLINE;
	inverter_type FOUR_QUADRANT;
    four_quadrant_control_mode CONSTANT_PF;
    generator_mode SUPPLY_DRIVEN;
    inverter_efficiency .95;
	rated_power 200000;

}
object inverter {
	name solar_inv_02;
	phases ABCN;
	parent solar_m2;
	generator_status ONLINE;
	inverter_type FOUR_QUADRANT;
    four_quadrant_control_mode CONSTANT_PF;
    generator_mode SUPPLY_DRIVEN;
    inverter_efficiency .95;
	rated_power 200000;

}
object inverter {
	name solar_inv_03;
	phases ABCN;
	parent solar_m3;
	generator_status ONLINE;
	inverter_type FOUR_QUADRANT;
    four_quadrant_control_mode CONSTANT_PF;
    generator_mode SUPPLY_DRIVEN;
    inverter_efficiency .95;
	rated_power 200000;

}

//================================================================ Solar inverters end ================================================================//

//================================================================ Solar objects================================================================//

object solar {
    name F1_solar;
    parent solar_inv_01;
    panel_type SINGLE_CRYSTAL_SILICON;
    area 4000 ft^2;
    tilt_angle 47.0;
    efficiency 0.165;
    orientation_azimuth 270;          // West-facing (270°)
    orientation FIXED_AXIS;
    SOLAR_TILT_MODEL SOLPOS;
    SOLAR_POWER_MODEL FLATPLATE;
}
object solar {
    name F2_solar;
    parent solar_inv_02;
    panel_type SINGLE_CRYSTAL_SILICON;
    area 4000 ft^2;
    tilt_angle 47.0;
    efficiency 0.165;
    orientation_azimuth 270;          // West-facing (270°)
    orientation FIXED_AXIS;
    SOLAR_TILT_MODEL SOLPOS;
    SOLAR_POWER_MODEL FLATPLATE;
}
object solar {
    name F3_solar;
    parent solar_inv_03;
    panel_type SINGLE_CRYSTAL_SILICON;
    area 4000 ft^2;
    tilt_angle 47.0;
    efficiency 0.165;
    orientation_azimuth 270;          // West-facing (270°)
    orientation FIXED_AXIS;
    SOLAR_TILT_MODEL SOLPOS;
    SOLAR_POWER_MODEL FLATPLATE;
}
//================================================================ Solar objects ends================================================================//

//================================================================ SOLAR INVERTER POWER RECORDERS================================================================//
// Solar Inverter 1 Power Recorder
object recorder {
    parent solar_inv_01;
    name solar_inv_01_power_recorder;
    property P_Out,power_factor;
    flags DELTAMODE;
    interval 60;  // Record every minute
    file "solar_inverter_01_power.csv";
}

// Solar Inverter 2 Power Recorder
object recorder {
    parent solar_inv_02;
    name solar_inv_02_power_recorder;
    property P_Out,power_factor;
    flags DELTAMODE;
    interval 60;  // Record every minute
    file "solar_inverter_02_power.csv";
}

// Solar Inverter 3 Power Recorder
object recorder {
    parent solar_inv_03;
    name solar_inv_03_power_recorder;
    property P_Out,power_factor;
    flags DELTAMODE;
    interval 60;  // Record every minute
    file "solar_inverter_03_power.csv";
}


// Solar Panel 1 Power Recorder
object recorder {
    parent F1_solar;
    name solar_panel_01_recorder;
    property "P_Out,V_Out,I_Out";
    flags DELTAMODE;
    interval 60;  // Record every minute
    file "solar_panel_01_power.csv";
}

// Solar Panel 2 Power Recorder
object recorder {
    parent F2_solar;
    name solar_panel_02_recorder;
    property "P_Out,V_Out,I_Out";
    flags DELTAMODE;
    interval 60;  // Record every minute
    file "solar_panel_02_power.csv";
}

// Solar Panel 3 Power Recorder
object recorder {
    parent F3_solar;
    name solar_panel_03_recorder;
    property "P_Out,V_Out,I_Out";
    flags DELTAMODE;
    interval 60;  // Record every minute
    file "solar_panel_03_power.csv";
}

//================================================================ SOLAR INVERTER POWER RECORDERS end================================================================//

//===================================================================================================================================================================
//																		       Solar end
//===================================================================================================================================================================

//===================================================================================================================================================================
//																		       Wind
//===================================================================================================================================================================


///#set profiler=1;
#set double_format=%+.12lg
#set randomseed=10;
#set relax_naming_rules=1;
module assert;
module generators {
	enable_subsecond_models true;	//Enables deltamode for generator module
	deltamode_timestep 1000.0 ms;	//Desired timestep for the generator module models
}


//================================================================ Wind meters================================================================//

object meter {
	name my_meterw1;
	frequency_measure_type PLL;
	phases ABCN;
	nominal_voltage 230.94;
}

//================================================================ Wind meters end ================================================================//
// turbine
object windturb_dg {
    parent my_meterw1;
    phases ABCN;
    name windturb2_100kW_alt;
    Gen_status ONLINE;
    Gen_type SYNCHRONOUS;
    Gen_mode CONSTANTP;
    Turbine_Model GENERIC_SYNCH_LARGE;
    Rated_V 400;
    
    // Scale the turbine for 100kW output
    turbine_height 80;
    blade_diam 35;
    Cp_max 0.45;
    cut_in_ws 2.5;
    cut_out_ws 25;
    ws_rated 6.1;
}


// over head  lines

object overhead_line {
	name ovl_w11;
	phases "ABCN";
	from my_meterw1;
	to node8;
	length 2000;
	configuration line_config_A;
}

//================================================================ Wind recoders ================================================================//

object recorder {
    parent windturb2_100kW_alt;
    name turb_power_output;
    property voltage_A,voltage_B,voltage_C,current_A,current_B,current_C,power_A.real,power_B.real,power_C.real;
    interval 60; // log every 60 seconds
    file "turbine_power_output.csv";
}

// Voltage output recorder (in volts)
object recorder {
    parent windturb2_100kW_alt;
    name turb_voltage_output;
    property voltage_A,voltage_B,voltage_C,current_A,current_B,current_C,power_A.real,power_B.real,power_C.real;
    interval 60; // log every 60 seconds
    file "turbine_voltage_output.csv";
}

//================================================================ Wind recoders end  ================================================================//

//===================================================================================================================================================================
//																		       Wind end
//===================================================================================================================================================================


//===================================================================================================================================================================
//																		       Battery
//===================================================================================================================================================================

//================================================================ BAttery meters================================================================//
object meter {     
      name batt_m1;     
      phases ABCN;     
      nominal_voltage 230.94;         
}
//================================================================ BAttery meters end================================================================//
///// inverter
object inverter {
    name batt_inv;
    generator_status ONLINE;
    inverter_type FOUR_QUADRANT;
    four_quadrant_control_mode CONSTANT_PQ;
    parent batt_m1;
    rated_power 100000;  // 100kW per phase = 300kW total
    inverter_efficiency .95;

    max_discharge_rate 300.0 kW;
    max_charge_rate 300.0 kW;
    V_base 230.94;
    
     object player {
        property P_Out;
        file charge.csv;
    };
}

object battery {
    name battery_bank;
    parent batt_inv;
    use_internal_battery_model TRUE;
    battery_type LI_ION;
    Energy 1720 kWh;
    nominal_voltage 230.94;  // Match system
    battery_capacity 1720 kWh;
    round_trip_efficiency 0.85;
    state_of_charge 0.3;
    generator_mode CONSTANT_PQ;  // Match inverter
}

object recorder {
    parent battery_bank;
    property state_of_charge;
    interval 60;  // Record every 60 seconds
    file "battery_soc.csv";
}

///// over head lines
object overhead_line {
	name ovl_battery_connector1;
	phases "ABCN";
	from batt_m1;
	to node35;
	length 20;
	configuration line_config_A;
}


object recorder {
    parent batt_m1;
    name batteryrecorder;
    property voltage_A,voltage_B,voltage_C,current_A,current_B,current_C,power_A.real,power_B.real,power_C.real;
    interval 60; // log every 60 seconds
    file "battery.csv";
}

object recorder {
    parent ovl_battery_connector1;
    name batteryrecorder2;
    property current_in_A,current_in_B,current_in_C,power_in_A.real,power_in_B.real,power_in_C.real;
    interval 60; // log every 60 seconds
    file "battery_S1.csv";
}


//===================================================================================================================================================================
//																		       Battery end
//===================================================================================================================================================================


//===================================================================================================================================================================
//																		       Nodes
//===================================================================================================================================================================

// Feeder 01
// Node 01-10

object node {
	name node1;
	phases "ABCN";
	frequency_measure_type PLL;
	nominal_voltage 230.94;
}
object node {
	name node2;
	phases "ABCN";
	frequency_measure_type PLL;
	nominal_voltage 230.94;
}
object node {
	name node3;
	phases "ABCN";
	frequency_measure_type PLL;
	nominal_voltage 230.94;
}
object node {
	name node4;
	phases "ABCN";
	frequency_measure_type PLL;
	nominal_voltage 230.94;
}

object node {
	name node5;
	phases "ABCN";
	frequency_measure_type PLL;
	nominal_voltage 230.94;
}

object node {
	name node6;
	phases "ABCN";
	frequency_measure_type PLL;
	nominal_voltage 230.94;
}

object node {
	name node7;
	phases "ABCN";
	frequency_measure_type PLL;
	nominal_voltage 230.94;
}

object node {
	name node8;
	phases "ABCN";
	frequency_measure_type PLL;
	nominal_voltage 230.94;
}

object node {
	name node9;
	phases "ABCN";
	frequency_measure_type PLL;
	nominal_voltage 230.94;
}

object node {
	name node10;
	phases "ABCN";
	frequency_measure_type PLL;
	nominal_voltage 230.94;
}
// node 11-20
object node {
	name node11;
	phases "ABCN";
	frequency_measure_type PLL;
	nominal_voltage 230.94;
}

object node {
	name node12;
	phases "ABCN";
	frequency_measure_type PLL;
	nominal_voltage 230.94;
}

object node {
	name node13;
	phases "ABCN";
	frequency_measure_type PLL;
	nominal_voltage 230.94;
}

object node {
	name node14;
	phases "ABCN";
	frequency_measure_type PLL;
	nominal_voltage 230.94;
}

object node {
	name node15;
	phases "ABCN";
	frequency_measure_type PLL;
	nominal_voltage 230.94;
}

object node {
	name node16;
	phases "ABCN";
	frequency_measure_type PLL;
	nominal_voltage 230.94;
}

object node {
	name node17;
	phases "ABCN";
	frequency_measure_type PLL;
	nominal_voltage 230.94;
}

object node {
	name node18;
	phases "ABCN";
	frequency_measure_type PLL;
	nominal_voltage 230.94;
}

object node {
	name node19;
	phases "ABCN";
	frequency_measure_type PLL;
	nominal_voltage 230.94;
}

object node {
	name node20;
	phases "ABCN";
	frequency_measure_type PLL;
	nominal_voltage 230.94;
	object recorder {      
		flags DELTAMODE;	//Must explicitly set the recorder to do deltamode
		file NODE_20_CRITICAL_NODE_Data.csv;
		interval 60;			//Changed to 1, otherwise it won't record anything interesting in deltamode
		property voltage_A,voltage_B,voltage_C;
	}; 
}
// node 21-30
object node {
	name node21;
	phases "ABCN";
	frequency_measure_type PLL;
	nominal_voltage 230.94;
}

object node {
	name node22;
	phases "ABCN";
	frequency_measure_type PLL;
	nominal_voltage 230.94;
}

object node {
	name node23;
	phases "ABCN";
	frequency_measure_type PLL;
	nominal_voltage 230.94;
}

object node {
	name node24;
	phases "ABCN";
	frequency_measure_type PLL;
	nominal_voltage 230.94;
}

object node {
	name node25;
	phases "ABCN";
	frequency_measure_type PLL;
	nominal_voltage 230.94;
}

object node {
	name node26;
	phases "ABCN";
	frequency_measure_type PLL;
	nominal_voltage 230.94;
}

object node {
	name node27;
	phases "ABCN";
	frequency_measure_type PLL;
	nominal_voltage 230.94;
}

object node {
	name node28;
	phases "ABCN";
	frequency_measure_type PLL;
	nominal_voltage 230.94;
}

object node {
	name node29;
	phases "ABCN";
	frequency_measure_type PLL;
	nominal_voltage 230.94;
}

object node {
	name node30;
	phases "ABCN";
	frequency_measure_type PLL;
	nominal_voltage 230.94;
}
// node 31-34
object node {
	name node31;
	phases "ABCN";
	frequency_measure_type PLL;
	nominal_voltage 230.94;
}

object node {
	name node32;
	phases "ABCN";
	frequency_measure_type PLL;
	nominal_voltage 230.94;
}

object node {
	name node33;
	phases "ABCN";
	frequency_measure_type PLL;
	nominal_voltage 230.94;
}

object node {
	name node34;
	phases "ABCN";
	frequency_measure_type PLL;
	nominal_voltage 230.94;
}


// Feeder 02

//Node 35-45

object node {
	name node35;
    phases "ABCN";
    frequency_measure_type PLL;
    nominal_voltage 230.94;
}

object node {
    name node36;
    phases "ABCN";
    frequency_measure_type PLL;
    nominal_voltage 230.94;
}

object node {
    name node37;
    phases "ABCN";
    frequency_measure_type PLL;
    nominal_voltage 230.94;
}

object node {
    name node38;
    phases "ABCN";
	frequency_measure_type PLL;
    nominal_voltage 230.94;
}

object node {
    name node39;
    phases "ABCN";
    frequency_measure_type PLL;
    nominal_voltage 230.94;
}

object node {
    name node40;
    phases "ABCN";
	frequency_measure_type PLL;
    nominal_voltage 230.94;
}

object node {
    name node41;
    phases "ABCN";
    frequency_measure_type PLL;
    nominal_voltage 230.94;
}

object node {
    name node42;
    phases "ABCN";
    frequency_measure_type PLL;
    nominal_voltage 230.94;
}

object node {
    name node43;
    phases "ABCN";
	frequency_measure_type PLL;
    nominal_voltage 230.94;
}

object node {
    name node44;
    phases "ABCN";
	frequency_measure_type PLL;
    nominal_voltage 230.94;
}

object node {
    name node45;
    phases "ABCN";
    frequency_measure_type PLL;
    nominal_voltage 230.94;
}

//Node 46-55

object node {
    name node46;
    phases "ABCN";
    frequency_measure_type PLL;
    nominal_voltage 230.94;
}

object node {
    name node47;
    phases "ABCN";
    frequency_measure_type PLL;
    nominal_voltage 230.94;
}


object node {
    name node48;
    phases "ABCN";
    frequency_measure_type PLL;
    nominal_voltage 230.94;
}

object node {
    name node49;
    phases "ABCN";
	frequency_measure_type PLL;
    nominal_voltage 230.94;
}

object node {
    name node50;
    phases "ABCN";
	frequency_measure_type PLL;
    nominal_voltage 230.94;
}

object node {
    name node51;
    phases "ABCN";
	frequency_measure_type PLL;
    nominal_voltage 230.94;
}

object node {
    name node52;
    phases "ABCN";
	frequency_measure_type PLL;
    nominal_voltage 230.94;
	object recorder {      
		flags DELTAMODE;	//Must explicitly set the recorder to do deltamode
		file NODE_52_CRITICAL_NODE_Data.csv;
		interval 60;			//Changed to 1, otherwise it won't record anything interesting in deltamode
		property voltage_A,voltage_B,voltage_C;
	}; 
}

object node {
    name node53;
    phases "ABCN";
	frequency_measure_type PLL;
    nominal_voltage 230.94;
}

object node {
    name node54;
    phases "ABCN";
	frequency_measure_type PLL;
    nominal_voltage 230.94;
}

object node {
    name node55;
    phases "ABCN";
	frequency_measure_type PLL;
    nominal_voltage 230.94;
}

//Node 55-62

object node {
    name node56;
    phases "ABCN";
	frequency_measure_type PLL;
    nominal_voltage 230.94;
}

object node {
    name node57;
    phases "ABCN";
    frequency_measure_type PLL;
    nominal_voltage 230.94;
}

object node {
    name node58;
    phases "ABCN";
	frequency_measure_type PLL;
    nominal_voltage 230.94;
}

object node {
    name node59;
    phases "ABCN";
	frequency_measure_type PLL;
    nominal_voltage 230.94;
}

object node {
    name node60;
    phases "ABCN";
	frequency_measure_type PLL;
    nominal_voltage 230.94;
}

object node {
    name node61;
    phases "ABCN";
	frequency_measure_type PLL;
    nominal_voltage 230.94;
}

object node {
    name node62;
    phases "ABCN";
	frequency_measure_type PLL;
    nominal_voltage 230.94;
}


// Feeder 03


object node {
    name node63;
    phases "ABCN";
    frequency_measure_type PLL;
    nominal_voltage 230.94;
    
}
object node {
    name node64;
    phases "ABCN";
    frequency_measure_type PLL;
    nominal_voltage 230.94;
    
}
object node {
    name node65;
    phases "ABCN";
    frequency_measure_type PLL;
    nominal_voltage 230.94;
    
}
object node {
    name node66;
    phases "ABCN";
    frequency_measure_type PLL;
    nominal_voltage 230.94;
    
}
object node {
    name node67;
    phases "ABCN";    
    frequency_measure_type PLL;
	nominal_voltage 230.94;
    
}
object node {
    name node68;
    phases "ABCN";
    frequency_measure_type PLL;
    nominal_voltage 230.94;
    
}
object node {
    name node69;
    phases "ABCN";
    frequency_measure_type PLL;
    nominal_voltage 230.94;
    
}
object node {
    name node70;
    phases "ABCN";    
    frequency_measure_type PLL;
    nominal_voltage 230.94;
    
}
object node {
    name node71;
    phases "ABCN";   
    frequency_measure_type PLL;